	493

   H      4.754451     -1.095385     23.473558
   H      7.292029      2.991432     23.402405
   H      5.450956     -3.457373     23.440788
   H     -3.791633      4.047023     23.380175
   H     -1.250828      8.251673     23.353517
   H      9.703407      3.485815     23.303622
   H      5.415065      7.006400     23.391915
   H      0.332436     -1.327782     23.361979
   H      3.164127      8.376946     23.381157
   H     -1.917000      0.041981     23.342507
   H     -1.844371     10.639834     23.270951
   H     -6.191982      3.511496     23.329301
   C      4.142686     -1.825255     22.944243
   C      4.481581      6.687157     22.942941
   C      4.525970     -3.157713     22.945709
   C      0.191456     -0.348700     22.919011
   C      3.311903      7.399203     22.937311
   C      7.634633      3.876097     22.867131
   C     -0.977337      0.363004     22.908317
   C      8.990004      4.162624     22.830987
   H    -10.227313      2.345613     22.969114
   C     -4.126843      3.154491     22.852775
   H     -2.881895     14.616766     22.869523
   C     -0.598905      8.945297     22.823792
   H     13.717081      4.026843     22.720188
   H      5.389761     -7.821736     22.452604
   C     -0.924752     10.292662     22.797554
   C     -5.477846      2.843316     22.845977
   H      7.067160     -7.152612     22.608616
   H     13.428653      5.732370     22.176359
   C      4.267995      5.428029     22.303937
   O      5.587351     -5.705352     22.333812
   C      1.218169      0.425065     22.296309
   C      2.295589      6.628663     22.293151
   C     -0.754316      1.625850     22.276921
   O     11.733717      4.458884     22.198657
   C      2.975636     -1.389591     22.267851
   O     -1.821282     12.919071     22.214269
   C      6.685524      4.709699     22.225048
   H     -1.359518     14.968721     21.954401
   C      3.723234     -4.130422     22.320843
   C      6.105762     -7.071772     22.082633
   C      2.627517      0.068092     22.150732
   N      2.887508      5.379742     21.928056
   N      0.631613      1.677862     21.924872
   C      5.232985      4.340904     22.139776
   C     -3.172985      2.334655     22.198879
   C      0.567244      8.454570     22.184667
   C      9.454380      5.336171     22.209420
   C     13.187141      4.671819     22.005288
   C     -1.720345      2.712834     22.110813
   C      0.887597      6.989054     22.113942
  In      1.762876      3.531298     21.242135
   C     -2.250065     14.323373     22.017994
   C     -5.935692      1.660849     22.234783
   C     -0.062315     11.224109     22.190000
   C      4.138570     -5.576964     22.266957
   O     -8.218458      2.514605     22.305765
   N      3.579060      2.420767     22.068263
   N     -0.067257      4.639716     22.037006
   C     10.921608      5.665817     22.167016
   C      3.695262      0.987691     21.950417
   C      4.906030      2.970037     21.941808
   C     -7.400566      1.314635     22.196529
   C     -0.384793     12.694145     22.162279
   C     -0.183434      6.072207     21.919139
   C     -1.394084      4.085639     21.919868
   C     -9.661381      2.329276     22.024778
   C      2.157554     -2.386590     21.686823
   C      2.511699     -3.728463     21.728774
   O     -7.919616      0.148413     22.097681
   C      7.165860      5.904867     21.640104
   O      3.370400     -6.598217     22.196874
   C      5.091172      0.702672     21.668327
   C      8.517082      6.221949     21.645441
   C      5.794838      1.854897     21.659866
   C     -3.646806      1.132455     21.621165
   C      1.434563      9.408492     21.602274
   C     -4.992505      0.792138     21.653779
   O     11.444067      6.834642     22.144518
   H     -9.976352      3.166599     21.383894
   C     -1.584371      6.353595     21.651250
   C     -2.286867      5.200784     21.653119
   C      1.139148     10.764103     21.620836
   O      0.456482     13.660014     22.147870
   H      5.496457     -0.276738     21.440090
   H      6.849878      1.938688     21.424282
   H     -1.994983      7.331057     21.423286
   H     -3.343639      5.117738     21.425768
   H      6.257257     -7.209994     20.998584
   H     -9.820619      1.369121     21.509561
   H      1.246108     -2.089233     21.168253
   H      1.878520     -4.480342     21.253163
   H     13.452963      4.387213     20.973358
   H      6.458577      6.571862     21.147711
   H      8.870827      7.142997     21.177603
   H     -2.940662      0.473219     21.116540
   H     -2.830379     14.378607     21.081893
   H     -5.338726     -0.131588     21.185555
   H      2.341911      9.063731     21.106414
   H      1.816481     11.484384     21.156741
   C     -6.194395      8.581324     18.719543
   C     -4.955696      7.866272     18.694337
   C     -7.433720      7.866113     18.716180
   C     -7.434025      6.435264     18.687265
   C     -6.195426      5.720411     18.657229
   C     -4.956394      6.435323     18.662205
   C     -6.194022     10.012446     18.700451
   C     -3.716818      8.581466     18.658740
   C     -8.672629      5.720398     18.652166
   C     -8.672584      8.581198     18.692143
   C     -3.716362     10.012323     18.643021
   C     -4.955161     10.727102     18.662265
   C     -6.196371      4.290898     18.589770
   C     -3.719107      5.720462     18.608927
   C     -8.672551      4.291025     18.592492
   C     -2.479334      7.866799     18.608715
   C     -7.434300      3.576499     18.559394
   C     -7.432947     10.727069     18.672284
   C     -9.911248      6.435321     18.642541
   C      6.194194     -0.003794     18.540046
   C      4.956095     -0.721002     18.527989
   C     -8.672007     10.011957     18.665541
   C     -2.480331      6.435740     18.587008
   C     -9.911101      7.866082     18.652490
   C     -4.958472      3.575975     18.543448
   C      6.194645      1.427454     18.540641
   C     -3.720952      4.289667     18.563621
   C      4.955579     -2.150088     18.510909
   C      3.717102     -0.008327     18.513777
   C      7.432686     -0.717329     18.543081
   C     -2.478768     10.726623     18.572012
   C     -4.954907     12.157106     18.610897
   C      4.956343      2.141522     18.535623
   C      7.433461      2.143943     18.542884
   C      3.721172      1.419988     18.528593
   C     -9.910693      3.575615     18.555171
   C      3.716483     -2.864535     18.490109
   C      6.194416     -2.863726     18.511831
   C     -1.240841      8.582107     18.560943
   C      2.476843     -0.721728     18.504847
   C     -7.433872      2.147546     18.490379
   C      7.432640     -2.147972     18.527895
   C     -1.240801     10.011547     18.532620
   C      8.671265     -0.001656     18.543911
   C      2.477310     -2.150459     18.483698
   C      8.671430      1.429491     18.540012
   C     -7.432362     12.156961     18.614709
   C    -11.149012      5.720326     18.587323
   C      7.434473      3.575171     18.521660
   C     -1.242780      5.720758     18.544218
   C     -2.478740     12.156105     18.523440
   C      3.716473     -4.293777     18.485184
   C     -4.958078      2.146231     18.481297
   C     -9.910189      2.145586     18.497326
   C      4.959946      3.573557     18.523316
   C    -11.148837      4.290077     18.558681
   C     -8.671844      1.431877     18.466833
   C     -6.193558     12.871563     18.592150
   C      2.478931      2.126469     18.528299
   C     -2.484357      3.573871     18.519601
   C     -3.716971     12.870580     18.547872
   C     -6.195565      1.432250     18.464735
   C      1.235640     -0.009177     18.501892
   C    -11.148493      8.580514     18.586959
   C      6.197321      4.290384     18.516304
   C     -9.909580     10.725849     18.593658
   C      6.193825     -4.293476     18.484193
   C      1.237146     -2.864545     18.471868
   C     -1.248669      4.289976     18.529264
   C     -0.003139      7.868432     18.525990
   C      2.477234     -5.008274     18.467741
   C      4.955433     -5.007819     18.474264
   C      1.233573      1.419183     18.512523
   C      8.671701      4.289479     18.481155
   C      1.237765     -4.294253     18.466287
   C      9.909777      2.144756     18.512767
   C     -0.005133      6.438264     18.527138
   C      8.671094     -2.862206     18.510017
   C      2.484499      3.570316     18.535526
   C      9.909475     -0.716360     18.524412
   C     -0.003115     10.724831     18.457588
   C      3.728965      4.294432     18.538007
   C      9.910199      3.575027     18.481805
   C     -2.482523      2.143088     18.492806
   C     -3.719911      1.430326     18.459195
   C    -11.147695     10.010728     18.555406
   C     -0.015203      3.569267     18.524170
   C     -1.241533     12.869267     18.441763
   C     -0.002323     -2.150300     18.476623
   C     -0.003265     -0.719660     18.480837
   C      1.227824      4.295042     18.535544
   C     -0.006721      2.137293     18.508832
   C     -0.001334     -5.008256     18.468744
   C    -11.147859      1.430121     18.475926
   C      2.477180     -6.438240     18.443923
   C     -8.671046      0.001529     18.430485
   C    -12.386452      6.435088     18.538125
   C      6.194422      5.719652     18.466294
   C     -8.670215     12.870490     18.550785
   C      1.234857      5.731854     18.531462
   C      9.909347     -2.146968     18.506948
   C     -0.003373     12.154277     18.414076
   C      8.670934      5.719445     18.425650
   C      1.235174      8.580313     18.468167
   C     -0.000569     -6.438309     18.462644
   C     -1.244431      1.424787     18.489432
   C     -6.194789      0.001264     18.427879
   C      7.432620     -5.007398     18.469446
   C    -12.386324      3.575067     18.506774
   C    -12.386013      7.865517     18.530484
   C      1.238437     -7.152516     18.446577
   C      3.718354      5.723607     18.522590
   C     -9.908644     12.155454     18.537714
   C     -3.716775     14.300798     18.496161
   C      1.234844     10.009638     18.422052
   C     11.147797      1.429327     18.494001
   C      4.954780     -6.437808     18.443269
   C     -1.241473     -0.004175     18.471516
   C      8.670716     -4.292455     18.477737
   C     11.147740     -0.001153     18.501061
   C      7.432191      6.434072     18.415203
   C     -6.193133     14.300724     18.522406
   C     -1.240099     -4.293599     18.472325
   C      2.476884      6.438365     18.515267
   C     -1.240941     -2.863582     18.472881
   C     -7.432811     -0.713798     18.415738
   C      3.716140     -7.152429     18.429963
   C      4.955734      6.436556     18.466211
   C    -12.385837      2.144734     18.477132
   C     -9.908718     -0.714287     18.426897
   C     -3.718757     -0.001432     18.438116
   C    -11.147318      0.000127     18.440518
   C     11.147572      4.289443     18.429213
   C     -1.239184     -7.152555     18.461196
   C      2.476071      7.866969     18.460363
   C     -2.480729     -0.717976     18.456913
   C     -4.956781     -0.715422     18.425564
   C     -1.240480     14.299507     18.410788
   C      9.908601      6.434008     18.376982
   C     -4.954894     15.015128     18.486571
   C      1.238512     -8.582577     18.428360
   C     -2.479626     -2.148080     18.460868
   C     -2.478752     -5.007606     18.467755
   C     -2.478171     15.014844     18.435938
   C     -2.477993     -6.437895     18.463380
   C      1.235154     12.868268     18.364284
   C     11.146952      5.719311     18.375506
   C     -1.238763     -8.582779     18.444700
   C      2.474215     10.723862     18.381405
   C      4.954043      7.866049     18.422045
   C    -13.623720      5.720202     18.479265
   C    -13.623894      4.289810     18.473251
   C      6.193413     -7.152465     18.427112
   C      7.432469     -6.437433     18.438787
   C      3.714786      8.580365     18.420041
   C     12.385521      2.144178     18.451975
   C      0.000000     -9.297188     18.428346
   C     11.147387     -2.861361     18.467870
   C      7.430907      7.864417     18.381954
   C     -8.669477     14.299578     18.483789
   C     12.385040      3.573970     18.418541
   C     -7.432374     -2.144657     18.415292
   C     -3.717947     -2.861920     18.451218
   C      3.715822     -8.582302     18.408912
   C     -4.956044     -2.146331     18.432248
   C     -7.431121     15.014466     18.476697
   C     -9.908587     -2.144804     18.406932
   C     -3.717261     -4.292373     18.458469
   C      2.477220     -9.296967     18.406341
   C     12.385642     -0.715853     18.463577
   C      2.474215     12.154196     18.359584
   C    -12.385037     -0.714889     18.413115
   C      9.908865     -5.006634     18.444928
   C      3.713741     10.010049     18.387025
   C      6.192331      8.579895     18.389572
   C    -13.623428      1.430037     18.433167
   C     -6.194359     -2.860456     18.426265
   C      9.907489      7.863957     18.337071
   C     -0.002438     15.013529     18.363289
   C     -3.716575     -7.152045     18.448055
   C     -8.670329     -2.859799     18.407706
   C     -2.477338     -9.297083     18.430084
   C      1.235754     14.298569     18.343712
   C      8.669128      8.578936     18.350104
   C     12.385491     -2.146259     18.446978
   C     -4.955687     -5.006494     18.445426
   C     11.147088     -4.291573     18.437712
   C     -3.716047     -8.582328     18.431004
   C    -13.623260     -0.000268     18.406773
   C      0.000149    -10.727202     18.401672
   C     12.384911      6.434186     18.341342
   C     -2.477831     16.444669     18.400372
   C    -11.146549     -2.859884     18.390442
   C     -4.954341     16.444514     18.428591
   C     -6.193825     -4.291011     18.430361
   C     -4.955034     -6.436956     18.439350
   C    -12.384902     -2.145258     18.387004
   C     13.623637      1.429421     18.428179
   C      4.954266     -9.297124     18.393242
   C      6.192927     -8.583087     18.401340
   C      4.952499     10.724406     18.369595
   C      6.191455     10.009911     18.369609
   C      8.670253     -7.151646     18.412568
   C     -2.477033    -10.727180     18.403998
   C    -14.861413      3.574965     18.425246
   C     13.623898      4.289348     18.388282
   C      2.477243    -10.726967     18.382733
   C     13.623616     -0.000854     18.430164
   C     11.145844      8.578867     18.307179
   C      3.713315     12.868764     18.349516
   C     -8.670137     -4.290371     18.401001
   C     -1.238328    -11.441762     18.390695
   C    -14.861444      2.144731     18.413654
   C      9.908447     -6.436772     18.411190
   C     -7.432019     -5.005668     18.412517
   C     -0.001468     16.443919     18.352620
   C      1.238763    -11.441686     18.378277
   C     12.384579      7.863839     18.303301
   C     -3.715919     17.159089     18.396553
   C     13.623571      5.720157     18.355191
   C     -7.430627     16.443850     18.419650
   C      8.668609     10.009373     18.339884
   C      2.474715     15.013351     18.334503
   C     -4.954430     -9.296566     18.404229
   C     -6.193315     -7.151301     18.413356
   C     -1.239552     17.158954     18.364277
   C      4.952111     12.154545     18.355454
   C    -11.146508     -4.290314     18.372610
   C      7.430126     10.724216     18.352436
   C     -9.908198     -5.005275     18.380248
   C     -6.192414     17.158760     18.404764
   C      3.713433     14.298973     18.339006
   C     -3.715506    -11.441523     18.382750
   C     -7.431619     -6.436112     18.401039
   C     -6.192916     -8.581592     18.395731
   C     13.623189     -2.860662     18.399000
   C     -4.954101    -10.726741     18.382231
   C     11.145678     10.009171     18.306187
   C     12.384890     -5.005842     18.392731
   C     14.861834      2.144238     18.397041
   C     -1.238135    -12.871774     18.360465
   C      3.715650    -11.441667     18.363558
   C      4.954161    -10.726978     18.369703
   C     14.862213      3.574374     18.385694
   C      9.907159     10.723891     18.323367
   C      1.237027     17.158597     18.332937
   C      3.715015    -21.450430     18.454958
   C      7.431180     -9.296910     18.382086
   C      2.475340     16.443739     18.329601
   C      4.953477    -19.305665     18.470044
   C      8.669603     -8.581884     18.385061
   C      1.238922    -12.871681     18.350259
   C     13.623124      8.578863     18.298207
   C      6.190967     12.869002     18.349636
   C     14.861437     -0.715508     18.392202
   C     -8.669779     -7.150713     18.373881
   C      7.429738     12.154479     18.347937
   C     -9.908087     -6.435660     18.364339
   C     -3.715278    -12.871646     18.358785
   C     13.623022     -4.290887     18.375216
   C      0.000482    -13.586380     18.342193
   C     -2.476643    -13.586316     18.348962
   C     14.861784      6.434369     18.335135
   C     -1.239179     18.589109     18.340962
   C     11.146414     -7.151030     18.377144
   C     -7.431188     -9.296013     18.367374
   C     -3.715725     18.589061     18.361117
   C      4.952224     15.013624     18.338321
   C     14.861328     -2.145766     18.376432
   C     -6.192505    -11.441157     18.359138
   C     12.384292     10.723803     18.299631
   C      2.476805    -23.595351     18.423480
   C      3.715624    -20.020454     18.426428
   C     12.384619     -6.436048     18.366451
   C      6.192173    -17.161093     18.457702
   C     -8.669577     -8.581068     18.357769
   C     13.622970     10.009145     18.293226
   C     14.861779      7.864359     18.310558
   C      9.906976     12.154175     18.329018
   C      1.237487     18.588960     18.324393
   C      6.190884     14.299260     18.342777
   C     -7.431025    -10.726324     18.352782
   C     -2.477373     19.303843     18.339901
   C      3.713947     17.158560     18.326139
   C      8.668452     12.868902     18.340112
   C      2.477218    -22.165199     18.408970
   C     -4.953800    -13.586164     18.345448
   C      3.714887     27.169975     18.358260
   C     -0.000693     19.303874     18.323322
   C     -6.192116     18.588808     18.370674
   C      3.715908    -12.871805     18.346247
   C      2.476570     29.314965     18.373788
   C      2.477491    -13.586451     18.337198
   C      4.954081    -17.875902     18.428934
   C     -6.192382    -12.871420     18.345991
   C     16.099775      1.429572     18.380369
   C     -2.476500    -15.016458     18.327047
   C      4.952474     16.443988     18.330276
   C     16.100193      4.289367     18.367723
   C      6.192554    -11.441660     18.361298
   C     16.099647     -0.000703     18.374137
   C     12.384247     12.154035     18.309301
   C      2.476611     27.884675     18.351866
   C      0.000694    -15.016512     18.319569
   C      4.953230     25.024809     18.347819
   C      7.431045    -10.726998     18.365697
   C     -4.953928     19.303698     18.356275
   C     11.145664     12.868738     18.322939
   C     16.100113      5.719685     18.349294
   C      3.714910     25.739625     18.339058
   C      2.475989     19.303823     18.317174
   C     -4.953675    -15.016408     18.332436
   C      3.714348     18.588944     18.320692
   C     -1.237846    -15.731113     18.314073
   C     -3.715066    -15.731104     18.322631
   C      9.907693     -9.296250     18.365870
   C      7.429641     15.013792     18.338336
   C      1.238399     31.459845     18.383417
   C      1.238636    -25.740328     18.393601
   C      8.668291     14.299200     18.338495
   C     11.145998     -8.581293     18.359794
   C     -0.000485     20.734248     18.310282
   C      1.238339     30.029599     18.368970
   C      4.953204     23.594414     18.333293
   C      1.238847    -24.310151     18.386272
   C      2.476662     25.024847     18.317461
   C      6.191542     22.879508     18.341193
   C      7.430746    -15.016602     18.424278
   C      2.476281     20.734214     18.310513
   C      6.191091     17.158702     18.328319
   C      1.237983     21.449096     18.304991
   C     11.145549     14.298989     18.330932
   C     -2.477183     20.734207     18.323485
   C      1.238332     27.169923     18.331368
   C      6.192560    -15.731398     18.411384
   C     -3.714989    -17.161307     18.308285
   C      2.476557     23.594408     18.308748
   C      3.714887     22.879542     18.316091
   C      1.238274     25.739578     18.315307
   C     -1.238785     21.449034     18.310714
   C      1.238140     22.879549     18.301314
   C      9.906936     15.013728     18.335436
   C      7.429680     16.444102     18.332398
   C      4.952859     19.303830     18.320122
   C     17.338052      2.144512     18.376940
   C      3.714741     21.449110     18.313258
   C      2.477863    -15.016716     18.327193
   C      2.478098    -19.306349     18.362988
   C      1.239389    -15.731272     18.315148
   C     17.338266      3.574790     18.376315
   C     -2.476286    -17.875976     18.298701
   C      6.191519     21.449107     18.330221
   C      4.954372    -13.586662     18.351811
   C     -1.237684    -17.161372     18.301244
   C      7.429917     20.734231     18.336776
   C      4.953096     20.734251     18.319375
   C      6.191313     18.589075     18.324137
   C     -0.000242     23.594335     18.302201
   C     -0.000159     25.024771     18.309263
   C      1.239476    -21.450959     18.356310
   C      9.906867     16.444026     18.337081
   C     -0.000031     27.884523     18.340344
   C      8.668340     18.589079     18.336396
   C     -2.476252    -19.306249     18.293717
   C      0.000050     29.314757     18.357395
   C      8.668300     17.158726     18.333880
   C      6.192719    -12.872016     18.361225
   C      7.429852     19.303847     18.330241
   C      3.716513    -17.161732     18.367083
   C     -1.238661     22.879500     18.307230
   C     -1.238428     27.169744     18.343029
   C     -1.238493     25.739439     18.325965
   C     -2.476827     25.024612     18.337351
   C     -3.715406     21.448951     18.331568
   C      1.239646    -20.020835     18.337399
   C     -4.953669     20.734069     18.345091
   C      2.478148    -17.876242     18.342386
   C     -2.476922     23.594252     18.323547
   C      3.716333    -15.731557     18.347569
   C      4.954646    -15.016965     18.363931
   C      0.001067    -17.876045     18.302582
   C      1.239676    -17.161577     18.313092
   C     -1.237486    -20.020786     18.299834
   C      0.000757    -23.595720     18.352668
   C      8.669311    -11.441611     18.367079
   C     -1.237470    -21.451063     18.310669
   C      0.000941    -22.165503     18.336096
   C      9.907481    -10.726651     18.364052
   C      7.430912    -13.586672     18.386164
   C     -3.715196     22.879366     18.336165
   C      0.001182    -19.306325     18.307783
   C      8.669147    -12.871862     18.387111
